Version 4
SHEET 1 1740 680
WIRE 528 32 512 32
WIRE 640 32 608 32
WIRE 832 64 800 64
WIRE 928 64 896 64
WIRE 1104 64 928 64
WIRE 272 128 192 128
WIRE 352 128 272 128
WIRE 432 128 416 128
WIRE 512 128 512 32
WIRE 528 128 512 128
WIRE -240 144 -256 144
WIRE -208 144 -240 144
WIRE 640 144 640 32
WIRE 640 144 592 144
WIRE 720 144 640 144
WIRE 800 144 800 64
WIRE 816 144 800 144
WIRE 832 144 816 144
WIRE 928 144 896 144
WIRE 992 144 928 144
WIRE -256 160 -256 144
WIRE 816 160 816 144
WIRE 1104 160 1104 64
WIRE 1104 160 1056 160
WIRE 1296 160 1104 160
WIRE 272 176 192 176
WIRE 992 176 960 176
WIRE 1584 192 1488 192
WIRE 1664 192 1648 192
WIRE -224 224 -256 224
WIRE -208 224 -224 224
WIRE 272 224 192 224
WIRE 1296 224 1248 224
WIRE -224 256 -224 224
FLAG -192 0 0
FLAG -192 -80 +18
FLAG 272 176 0
FLAG -96 0 0
FLAG -96 -80 +5
FLAG 272 48 +5
FLAG 272 304 0
FLAG 560 112 +18
FLAG 560 176 0
FLAG -224 256 0
FLAG -208 64 +18
FLAG -240 144 +9
FLAG 528 160 +9
FLAG 816 240 0
FLAG 1024 128 +18
FLAG 1024 192 0
FLAG 960 176 +9
FLAG 1360 256 0
FLAG 1360 128 +18
FLAG 1248 224 +9
FLAG 1664 272 0
SYMBOL voltage -192 -96 R0
WINDOW 123 0 0 Left 0
WINDOW 39 0 0 Left 0
SYMATTR InstName V2
SYMATTR Value 18
SYMBOL res 256 32 R0
SYMATTR InstName R1
SYMATTR Value 2.2k
SYMBOL voltage -96 -96 R0
WINDOW 123 0 0 Left 0
WINDOW 39 0 0 Left 0
SYMATTR InstName V1
SYMATTR Value 5
SYMBOL Misc\\signal 272 208 R0
WINDOW 123 0 0 Left 0
WINDOW 39 0 0 Left 0
SYMATTR InstName V3
SYMATTR Value SINE(0 2u 1k)
SYMBOL ZZZ\\miscellaneous\\electrecmic 80 144 R0
SYMATTR InstName U1
SYMATTR SpiceLine frec=3k S=-25 fase=0
SYMBOL cap 416 112 R90
WINDOW 0 0 32 VBottom 2
WINDOW 3 32 32 VTop 2
SYMATTR InstName C1
SYMATTR Value 100n
SYMBOL ZZZ\\OpAmp\\TL072 560 144 R0
SYMATTR InstName U2
SYMBOL res -224 48 R0
SYMATTR InstName R2
SYMATTR Value 10k
SYMBOL res -224 128 R0
SYMATTR InstName R3
SYMATTR Value 10k
SYMBOL cap -272 160 R0
SYMATTR InstName C2
SYMATTR Value 100µ
SYMBOL res 528 112 R90
WINDOW 0 0 56 VBottom 2
WINDOW 3 32 56 VTop 2
SYMATTR InstName R4
SYMATTR Value 10k
SYMBOL res 624 16 R90
WINDOW 0 0 56 VBottom 2
WINDOW 3 32 56 VTop 2
SYMATTR InstName R5
SYMATTR Value 100k
SYMBOL ZZZ\\OpAmp\\TL072 1024 160 R0
SYMATTR InstName U3
SYMBOL res 816 128 R90
WINDOW 0 0 56 VBottom 2
WINDOW 3 32 56 VTop 2
SYMATTR InstName R6
SYMATTR Value 50k
SYMBOL cap 896 48 R90
WINDOW 0 0 32 VBottom 2
WINDOW 3 32 32 VTop 2
SYMATTR InstName C3
SYMATTR Value 1.5n
SYMBOL cap 896 128 R90
WINDOW 0 0 32 VBottom 2
WINDOW 3 32 32 VTop 2
SYMATTR InstName C4
SYMATTR Value 1.5n
SYMBOL res 800 144 R0
SYMATTR InstName R7
SYMATTR Value 5k
SYMBOL res 912 48 R0
SYMATTR InstName R8
SYMATTR Value 2Meg
SYMBOL ZZZ\\Sound_Amplifiers\\LM386_ETech 1360 192 R0
SYMATTR InstName U4
SYMBOL ZZZ\\Speaker\\speaker 1648 176 R0
SYMATTR InstName U5
SYMBOL cap 1648 176 R90
WINDOW 0 0 32 VBottom 2
WINDOW 3 32 32 VTop 2
SYMATTR InstName C5
SYMATTR Value 250µ
TEXT -226 328 Left 2 !.tran 0 15m 10m
