Version 4
SHEET 1 1696 880
WIRE -272 224 -352 224
WIRE -32 224 -192 224
WIRE 16 224 -32 224
WIRE 48 224 16 224
WIRE 80 224 48 224
WIRE 416 224 368 224
WIRE 480 224 416 224
WIRE 496 224 480 224
WIRE 672 224 656 224
WIRE 720 224 672 224
WIRE 768 224 720 224
WIRE 848 224 768 224
WIRE 896 224 848 224
WIRE 48 320 48 224
WIRE 80 320 48 320
WIRE 416 320 416 304
WIRE 416 320 368 320
WIRE 416 336 416 320
WIRE 848 368 848 224
WIRE 896 368 848 368
WIRE 1488 368 1440 368
WIRE 1552 368 1488 368
WIRE 1616 368 1552 368
WIRE 1648 368 1616 368
WIRE 848 384 848 368
WIRE 224 416 224 384
WIRE 1488 448 1488 368
WIRE 1488 448 1440 448
WIRE 1488 464 1488 448
WIRE 848 480 848 464
WIRE 896 480 848 480
WIRE 1008 544 1008 528
WIRE 1008 544 960 544
WIRE 1040 544 1008 544
WIRE 1360 544 1360 528
WIRE 1488 544 1360 544
WIRE 1552 544 1552 368
WIRE 1616 544 1616 368
WIRE 960 640 960 608
WIRE 1040 640 1040 624
WIRE 1040 640 960 640
WIRE 1136 640 1136 528
WIRE 1136 640 1040 640
WIRE 1232 640 1232 528
WIRE 1232 640 1136 640
WIRE 1296 640 1232 640
WIRE 1488 640 1488 624
WIRE 1488 640 1296 640
WIRE 1552 640 1552 608
WIRE 1552 640 1488 640
WIRE 1616 640 1616 608
WIRE 1616 640 1552 640
FLAG 720 288 0
FLAG 768 288 0
FLAG 1296 640 0
FLAG 672 224 +5
FLAG 1648 368 +3.3
FLAG -352 304 0
FLAG -32 288 0
FLAG 16 288 0
FLAG 224 416 0
FLAG 416 416 0
FLAG 496 224 +5
FLAG -16 688 0
FLAG -16 608 +5
FLAG 288 688 0
FLAG 288 608 +5
FLAG 480 288 0
SYMBOL PowerProducts\\LT3045 1136 368 R0
SYMATTR InstName U1
SYMBOL cap 704 224 R0
SYMATTR InstName C1
SYMATTR Value 4.7µ
SYMBOL cap 752 224 R0
SYMATTR InstName C2
SYMATTR Value .1µ
SYMBOL res 832 368 R0
SYMATTR InstName R1
SYMATTR Value 200k
SYMBOL cap 944 544 R0
SYMATTR InstName C3
SYMATTR Value 4.7µ
SYMBOL res 1024 528 R0
SYMATTR InstName R2
SYMATTR Value 33k
SYMBOL res 1472 528 R0
SYMATTR InstName R3
SYMATTR Value 51k
SYMBOL res 1472 448 R0
SYMATTR InstName R4
SYMATTR Value 470k
SYMBOL cap 1536 544 R0
SYMATTR InstName C4
SYMATTR Value 10µ
SYMBOL cap 1600 544 R0
SYMATTR InstName C5
SYMATTR Value .1µ
SYMBOL PowerProducts\\LT1764A 224 272 R0
SYMATTR InstName U2
SYMBOL voltage -352 208 R0
WINDOW 0 -28 13 Left 2
WINDOW 3 -272 98 Left 2
WINDOW 123 0 0 Left 0
WINDOW 39 0 0 Left 0
SYMATTR InstName V1
SYMATTR Value PULSE(6.5 7.5 0 .3u .3u .5u 1.5u)
SYMBOL cap -48 224 R0
SYMATTR InstName C6
SYMATTR Value 10µ
SYMBOL cap 0 224 R0
SYMATTR InstName C7
SYMATTR Value .1µ
SYMBOL res 400 208 R0
SYMATTR InstName R5
SYMATTR Value 30k
SYMBOL res 400 320 R0
SYMATTR InstName R6
SYMATTR Value 10k
SYMBOL current -16 608 R0
WINDOW 123 0 0 Left 0
WINDOW 39 0 0 Left 0
SYMATTR InstName I1
SYMATTR Value PULSE(0.5 1 0 1u 1u 50u 100u)
SYMBOL current 288 608 R0
WINDOW 123 0 0 Left 0
WINDOW 39 0 0 Left 0
SYMATTR InstName I2
SYMATTR Value SINE(.1 .1 10k)
SYMBOL bv -176 224 R90
WINDOW 0 -32 56 VBottom 2
WINDOW 3 34 25 VTop 2
SYMATTR InstName B1
SYMATTR Value V=.2*WHITE(10meg*time)
SYMBOL cap 464 224 R0
SYMATTR InstName C8
SYMATTR Value 10µ
TEXT 840 696 Left 2 !.tran .01
TEXT -48 568 Left 2 ;uC Load
TEXT 256 568 Left 2 ;Analog Load
